-------------------------------------------------------
          Amber 20 PMEMD                              2020
          -------------------------------------------------------

  [-O]verwriting output

File Assignments:

 Here is the input file:

Minimization
&cntrl
 imin=0,
 nstlim=500000, dt=0.002,
 irest=1, ntx=5,
 ntpr=20000, ntwr=20000, ntwx=20000,
 ioutfm=0, iwrap=1,
 ntt=3, gamma_ln=3, ig=71111,
 ntb=2, ntp=1,
 pres0=1.0, taup=3.0,
 tempi=300.0, temp0=300.0,
 ntc=2, ntf=2,
 cut=10.0,
 ntr=1,
 restraint_wt=10,
 restraintmask=':9-1637@CA,C,N,O',
/

--------------------------------------------------------------------------------
   1.  RESOURCE   USE:
--------------------------------------------------------------------------------

 getting box info from netcdf restart file
 NATOM  =  219227 NTYPES =      17 NBONH =  206195 MBONA  =   13332
 NTHETH =   29089 MTHETA =   18092 NPHIH =   58410 MPHIA  =   57767
 NHPARM =       0 NPARM  =       0 NNB   =  400699 NRES   =   66120
 NBONA  =   13332 NTHETA =   18092 NPHIA =   57767 NUMBND =      74
 NUMANG =     181 NPTRA  =     206 NATYP =      37 NPHB   =       0
 IFBOX  =       1 NMXRS  =      41 IFCAP =       0 NEXTRA =       0
 NCOPY  =       0

     BOX TYPE: RECTILINEAR

--------------------------------------------------------------------------------
   2.  CONTROL  DATA  FOR  THE  RUN
--------------------------------------------------------------------------------

default_name

General flags:
     imin    =       0, nmropt  =       0

Nature and format of input:
     ntx     =       5, irest   =       1, ntrx    =       1

Nature and format of output:
     ntxo    =       2, ntpr    =   20000, ntrx    =       1, ntwr    =   20000
     iwrap   =       1, ntwx    =   20000, ntwv    =       0, ntwe    =       0
     ioutfm  =       0, ntwprt  =       0, idecomp =       0, rbornstat=      0

Potential function:
     ntf     =       2, ntb     =       2, igb     =       0, nsnb    =      25
     ipol    =       0, gbsa    =       0, iesp    =       0
     dielc   =   1.00000, cut     =  10.00000, intdiel =   1.00000

Frozen or restrained atoms:
     ibelly  =       0, ntr     =       1
     restraint_wt =  10.00000

Molecular dynamics:
     nstlim  =    500000, nscm    =         0, nrespa  =         1
     t       =   0.00000, dt      =   0.00200, vlimit  =  -1.00000

Langevin dynamics temperature regulation:
     ig      =   71111
     temp0   = 300.00000, tempi   = 300.00000, gamma_ln=   3.00000

Pressure regulation:
     ntp     =       1
     pres0   =   1.00000, comp    =  44.60000, taup    =   3.00000

SHAKE:
     ntc     =       2, jfastw  =       0
     tol     =   0.00001

Ewald parameters:
     verbose =       0, ew_type =       0, nbflag  =       1, use_pme =       1
     vdwmeth =       1, eedmeth =       1, netfrc  =       1
     Box X =  115.273   Box Y =  107.256   Box Z =  206.607
     Alpha =   90.000   Beta  =   90.000   Gamma =   90.000
     NFFT1 =  120       NFFT2 =  108       NFFT3 =  216
     Cutoff=   10.000   Tol   =0.100E-04
     Ewald Coefficient =  0.27511
     Interpolation order =    4

    LOADING THE CONSTRAINED ATOMS AS GROUPS

   5.  REFERENCE ATOM COORDINATES

  default_name
     Mask :9-1637@CA,C,N,O; matches  6500 atoms

--------------------------------------------------------------------------------
   3.  ATOMIC COORDINATES AND VELOCITIES
--------------------------------------------------------------------------------

default_name
 begin time read from input coords =    10.000 ps

 Number of triangulated 3-point waters found:    64454

     Sum of charges from parm topology file =   0.00000012
     Forcing neutrality...

--------------------------------------------------------------------------------
   4.  RESULTS
 NSTEP =    20000   TIME(PS) =      50.000  TEMP(K) =   300.78  PRESS =    39.4
 Etot   =   -523417.0657  EKtot   =    134927.0625  EPtot      =   -658344.1282
 BOND   =      5020.1418  ANGLE   =     13024.1444  DIHED      =      8823.4486
 UB     =         0.0000  IMP     =         0.0000  CMAP       =      1504.8533
 1-4 NB =      6044.2095  1-4 EEL =     70784.6969  VDWAALS    =     77954.8420
 EELEC  =   -843054.9640  EHBOND  =         0.0000  RESTRAINT  =      1554.4993
 EAMBER (non-restraint)  =   -659898.6275
 EKCMT  =     58069.9583  VIRIAL  =     56171.3513  VOLUME     =   2232481.8510
                                                    Density    =         1.0013
 ------------------------------------------------------------------------------

      A V E R A G E S   O V E R      25 S T E P S

 NSTEP =   500000   TIME(PS) =    1010.000  TEMP(K) =   300.16  PRESS =    -4.2
 Etot   =   -525291.8906  EKtot   =    134652.1762  EPtot      =   -659944.0669
 BOND   =      4997.8560  ANGLE   =     12945.0422  DIHED      =      8771.2246
 UB     =         0.0000  IMP     =         0.0000  CMAP       =      1495.5912
 1-4 NB =      6089.4356  1-4 EEL =     70702.6734  VDWAALS    =     77570.6056
 EELEC  =   -844150.3347  EHBOND  =         0.0000  RESTRAINT  =      1633.8392
 EAMBER (non-restraint)  =   -661577.9061
 EKCMT  =     57927.6883  VIRIAL  =     58126.8251  VOLUME     =   2213171.2338
                                                    Density    =         1.0101
 ------------------------------------------------------------------------------

      R M S  F L U C T U A T I O N S

 NSTEP =   500000   TIME(PS) =    1010.000  TEMP(K) =     0.51  PRESS =   103.6
 Etot   =       649.6911  EKtot   =       227.0682  EPtot      =       553.7866
 BOND   =        52.4211  ANGLE   =        89.8540  DIHED      =        44.5790
 UB     =         0.0000  IMP     =         0.0000  CMAP       =        12.0332
 1-4 NB =        29.7150  1-4 EEL =        74.4522  VDWAALS    =       414.9422
 EELEC  =       647.9830  EHBOND  =         0.0000  RESTRAINT  =        32.5070
 EAMBER (non-restraint)  =       521.2796
 EKCMT  =       171.6246  VIRIAL  =      4882.9977  VOLUME     =      4779.6499
                                                    Density    =         0.0022
 ------------------------------------------------------------------------------
