-------------------------------------------------------
          Amber 20 PMEMD                              2020
          -------------------------------------------------------

  [-O]verwriting output

File Assignments:

 Here is the input file:

Minimization
&cntrl
 imin=0,
 nstlim=50000000, dt=0.002,
 irest=1, ntx=5,
 ntpr=50000, ntwr=50000, ntwx=50000,
 ioutfm=0, iwrap=1,
 ntt=3, gamma_ln=3, ig=72222,
 ntb=1, ntp=0,
 tempi=300.0, temp0=300.0,
 ntc=2, ntf=2,
 cut=10.0,

/

--------------------------------------------------------------------------------
   1.  RESOURCE   USE:
--------------------------------------------------------------------------------

 getting box info from netcdf restart file
 NATOM  =  219227 NTYPES =      17 NBONH =  206195 MBONA  =   13332
 NTHETH =   29089 MTHETA =   18092 NPHIH =   58410 MPHIA  =   57767
 NHPARM =       0 NPARM  =       0 NNB   =  400699 NRES   =   66120
 NBONA  =   13332 NTHETA =   18092 NPHIA =   57767 NUMBND =      74
 NUMANG =     181 NPTRA  =     206 NATYP =      37 NPHB   =       0
 IFBOX  =       1 NMXRS  =      41 IFCAP =       0 NEXTRA =       0
 NCOPY  =       0

     BOX TYPE: RECTILINEAR

--------------------------------------------------------------------------------
   2.  CONTROL  DATA  FOR  THE  RUN
--------------------------------------------------------------------------------

default_name

General flags:
     imin    =       0, nmropt  =       0

Nature and format of input:
     ntx     =       5, irest   =       1, ntrx    =       1

Nature and format of output:
     ntxo    =       2, ntpr    =   50000, ntrx    =       1, ntwr    =   50000
     iwrap   =       1, ntwx    =   50000, ntwv    =       0, ntwe    =       0
     ioutfm  =       0, ntwprt  =       0, idecomp =       0, rbornstat=      0

Potential function:
     ntf     =       2, ntb     =       1, igb     =       0, nsnb    =      25
     ipol    =       0, gbsa    =       0, iesp    =       0
     dielc   =   1.00000, cut     =  10.00000, intdiel =   1.00000

Frozen or restrained atoms:
     ibelly  =       0, ntr     =       0

Molecular dynamics:
     nstlim  =  50000000, nscm    =      1000, nrespa  =         1
     t       =   0.00000, dt      =   0.00200, vlimit  =  -1.00000

Langevin dynamics temperature regulation:
     ig      =   72222
     temp0   = 300.00000, tempi   = 300.00000, gamma_ln=   3.00000

SHAKE:
     ntc     =       2, jfastw  =       0
     tol     =   0.00001

Ewald parameters:
     verbose =       0, ew_type =       0, nbflag  =       1, use_pme =       1
     vdwmeth =       1, eedmeth =       1, netfrc  =       1
     Box X =  109.816   Box Y =  102.178   Box Z =  196.826
     Alpha =   90.000   Beta  =   90.000   Gamma =   90.000
     NFFT1 =  112       NFFT2 =  108       NFFT3 =  200
     Cutoff=   10.000   Tol   =0.100E-04
     Ewald Coefficient =  0.27511
     Interpolation order =    4

--------------------------------------------------------------------------------
   3.  ATOMIC COORDINATES AND VELOCITIES
--------------------------------------------------------------------------------

default_name
 begin time read from input coords =301010.000 ps

 Number of triangulated 3-point waters found:    64454

     Sum of charges from parm topology file =   0.00000012
     Forcing neutrality...

--------------------------------------------------------------------------------
   4.  RESULTS
 NSTEP =    50000   TIME(PS) =  301110.000  TEMP(K) =   299.67  PRESS =     0.0
 Etot   =   -528043.3588  EKtot   =    134432.4688  EPtot      =   -662475.8275
 BOND   =      5069.2721  ANGLE   =     12979.7065  DIHED      =      8737.8776
 UB     =         0.0000  IMP     =         0.0000  CMAP       =      1325.1117
 1-4 NB =      6155.4244  1-4 EEL =     70656.1097  VDWAALS    =     76805.8896
 EELEC  =   -844205.2191  EHBOND  =         0.0000  RESTRAINT  =         0.0000
 ------------------------------------------------------------------------------

      A V E R A G E S   O V E R    1000 S T E P S

 NSTEP = 50000000   TIME(PS) =  401009.999  TEMP(K) =   300.03  PRESS =     0.0
 Etot   =   -528215.5260  EKtot   =    134592.2019  EPtot      =   -662807.7280
 BOND   =      5017.6522  ANGLE   =     13031.1778  DIHED      =      8670.3420
 UB     =         0.0000  IMP     =         0.0000  CMAP       =      1326.5696
 1-4 NB =      6151.7347  1-4 EEL =     70593.8404  VDWAALS    =     77277.1364
 EELEC  =   -844876.1810  EHBOND  =         0.0000  RESTRAINT  =         0.0000
 ------------------------------------------------------------------------------

      R M S  F L U C T U A T I O N S

 NSTEP = 50000000   TIME(PS) =  401009.999  TEMP(K) =     0.65  PRESS =     0.0
 Etot   =       472.8720  EKtot   =       291.6715  EPtot      =       380.6790
 BOND   =        60.1867  ANGLE   =        86.5337  DIHED      =        48.4274
 UB     =         0.0000  IMP     =         0.0000  CMAP       =        20.8498
 1-4 NB =        33.2915  1-4 EEL =       100.9338  VDWAALS    =       394.6562
 EELEC  =       604.6453  EHBOND  =         0.0000  RESTRAINT  =         0.0000
 ------------------------------------------------------------------------------
