-------------------------------------------------------
          Amber 20 PMEMD                              2020
          -------------------------------------------------------

  [-O]verwriting output

File Assignments:

 Here is the input file:

Minimization
&cntrl
 imin=0,
 nstlim=50000000, dt=0.002,
 irest=1, ntx=5,
 ntpr=50000, ntwr=50000, ntwx=50000,
 ioutfm=0, iwrap=1,
 ntt=3, gamma_ln=3, ig=72222,
 ntb=1, ntp=0,
 tempi=300.0, temp0=300.0,
 ntc=2, ntf=2,
 cut=10.0,

/

--------------------------------------------------------------------------------
   1.  RESOURCE   USE:
--------------------------------------------------------------------------------

 getting box info from netcdf restart file
 NATOM  =  219227 NTYPES =      17 NBONH =  206195 MBONA  =   13332
 NTHETH =   29089 MTHETA =   18092 NPHIH =   58410 MPHIA  =   57767
 NHPARM =       0 NPARM  =       0 NNB   =  400699 NRES   =   66120
 NBONA  =   13332 NTHETA =   18092 NPHIA =   57767 NUMBND =      74
 NUMANG =     181 NPTRA  =     206 NATYP =      37 NPHB   =       0
 IFBOX  =       1 NMXRS  =      41 IFCAP =       0 NEXTRA =       0
 NCOPY  =       0

     BOX TYPE: RECTILINEAR

--------------------------------------------------------------------------------
   2.  CONTROL  DATA  FOR  THE  RUN
--------------------------------------------------------------------------------

default_name

General flags:
     imin    =       0, nmropt  =       0

Nature and format of input:
     ntx     =       5, irest   =       1, ntrx    =       1

Nature and format of output:
     ntxo    =       2, ntpr    =   50000, ntrx    =       1, ntwr    =   50000
     iwrap   =       1, ntwx    =   50000, ntwv    =       0, ntwe    =       0
     ioutfm  =       0, ntwprt  =       0, idecomp =       0, rbornstat=      0

Potential function:
     ntf     =       2, ntb     =       1, igb     =       0, nsnb    =      25
     ipol    =       0, gbsa    =       0, iesp    =       0
     dielc   =   1.00000, cut     =  10.00000, intdiel =   1.00000

Frozen or restrained atoms:
     ibelly  =       0, ntr     =       0

Molecular dynamics:
     nstlim  =  50000000, nscm    =      1000, nrespa  =         1
     t       =   0.00000, dt      =   0.00200, vlimit  =  -1.00000

Langevin dynamics temperature regulation:
     ig      =   72222
     temp0   = 300.00000, tempi   = 300.00000, gamma_ln=   3.00000

SHAKE:
     ntc     =       2, jfastw  =       0
     tol     =   0.00001

Ewald parameters:
     verbose =       0, ew_type =       0, nbflag  =       1, use_pme =       1
     vdwmeth =       1, eedmeth =       1, netfrc  =       1
     Box X =  109.816   Box Y =  102.178   Box Z =  196.826
     Alpha =   90.000   Beta  =   90.000   Gamma =   90.000
     NFFT1 =  112       NFFT2 =  108       NFFT3 =  200
     Cutoff=   10.000   Tol   =0.100E-04
     Ewald Coefficient =  0.27511
     Interpolation order =    4

--------------------------------------------------------------------------------
   3.  ATOMIC COORDINATES AND VELOCITIES
--------------------------------------------------------------------------------

default_name
 begin time read from input coords =401009.999 ps

 Number of triangulated 3-point waters found:    64454

     Sum of charges from parm topology file =   0.00000012
     Forcing neutrality...

--------------------------------------------------------------------------------
   4.  RESULTS
 NSTEP =    50000   TIME(PS) =  401109.999  TEMP(K) =   300.87  PRESS =     0.0
 Etot   =   -527713.4979  EKtot   =    134968.7969  EPtot      =   -662682.2948
 BOND   =      5013.0171  ANGLE   =     12976.9741  DIHED      =      8695.1505
 UB     =         0.0000  IMP     =         0.0000  CMAP       =      1324.8293
 1-4 NB =      6151.0205  1-4 EEL =     70577.7978  VDWAALS    =     76863.4867
 EELEC  =   -844284.5707  EHBOND  =         0.0000  RESTRAINT  =         0.0000
 ------------------------------------------------------------------------------

      A V E R A G E S   O V E R    1000 S T E P S

 NSTEP = 50000000   TIME(PS) =  501009.998  TEMP(K) =   300.02  PRESS =     0.0
 Etot   =   -528233.5139  EKtot   =    134587.2954  EPtot      =   -662820.8093
 BOND   =      5013.0972  ANGLE   =     13028.2691  DIHED      =      8668.2203
 UB     =         0.0000  IMP     =         0.0000  CMAP       =      1330.2048
 1-4 NB =      6153.4827  1-4 EEL =     70627.7393  VDWAALS    =     77256.4652
 EELEC  =   -844898.2880  EHBOND  =         0.0000  RESTRAINT  =         0.0000
 ------------------------------------------------------------------------------

      R M S  F L U C T U A T I O N S

 NSTEP = 50000000   TIME(PS) =  501009.998  TEMP(K) =     0.64  PRESS =     0.0
 Etot   =       469.0408  EKtot   =       288.2662  EPtot      =       373.5584
 BOND   =        60.0053  ANGLE   =        86.0270  DIHED      =        47.5282
 UB     =         0.0000  IMP     =         0.0000  CMAP       =        20.3303
 1-4 NB =        33.0825  1-4 EEL =       106.3181  VDWAALS    =       401.6996
 EELEC  =       609.2989  EHBOND  =         0.0000  RESTRAINT  =         0.0000
 ------------------------------------------------------------------------------
